# File generated by Flopy version 3.3.5 on 06/19/2023 at 17:35:26.
BEGIN options
  HEAD  FILEOUT  TRANSIENT.hds
END options

BEGIN period  1
  SAVE  HEAD  FREQUENCY  10
END period  1

