# File generated by Flopy version 3.3.5 on 06/19/2023 at 17:35:19.
BEGIN options
  COMPLEXITY  complex
END options

